%chk=td3.chk
%NProcShared=4
# b3lyp/6-31G*  force nosymm td(root=3)

 Title

0 1
 6       -0.161072    0.390003   -0.000009
 7        1.091202   -0.160409   -0.000077
 8       -1.208832   -0.245677    0.000017
 1        1.186793   -1.174448    0.000146
 1        1.930160    0.413764    0.000299
 1       -0.118281    1.508950    0.000010

