%chk=td1-orient.chk
%NProcShared=4
# cam-b3lyp/aug-cc-pvdz force td(root=1,nstates=20,EqSolv) SCRF=PCM int=(grid=ultrafine)

 Title

0 1
 6       -0.115594    0.472016    0.000036
 7        1.107654   -0.176788   -0.000130
 8       -1.205198   -0.301851   -0.000092
 1        1.164006   -1.181156    0.000187
 1        1.955911    0.363561    0.000204
 1       -0.227008    1.553303    0.000012

