%chk=freq.chk
%NProcShared=4
# pbepbe/Gen  opt(verytight,maxcycles=500) Freq=(savenormalmodes,raman) Int(grid=ultrafine)

 Title

0 1
 6       -0.160760    0.392714   -0.000033
 7        1.094539   -0.161363   -0.000081
 8       -1.212557   -0.247000    0.000030
 1        1.191489   -1.177384    0.000176
 1        1.933419    0.416706    0.000305
 1       -0.121670    1.509938    0.000043

H     0
S   4   1.00
     50.9991780              0.0096605
      7.4832181              0.0737289
      1.7774676              0.2958581
      0.5193295              0.7159053
S   1   1.00
      0.1541100              1.0000000
****
C     0
S   6   1.00
   2808.0645000              0.0020178
    421.1382800              0.0154332
     95.5866160              0.0755815
     26.7390040              0.2478282
      8.4328268              0.4793725
      2.7605821              0.3338344
S   2   1.00
      5.4470045             -0.0778408
      0.4792422              0.5689560
S   1   1.00
      0.1461565              1.0000000
P   4   1.00
     18.1308520              0.0158547
      4.0998832              0.0956828
      1.1858370              0.3049119
      0.3685974              0.4935016
P   1   1.00
      0.1097200              1.0000000
D   1   1.00
      0.6000000              1.0000000
****
N     0
S   6   1.00
   3845.4149000              0.0020186
    577.5332300              0.0154078
    131.3198300              0.0753714
     36.8237810              0.2482122
     11.6701150              0.4798274
      3.8542604              0.3318012
S   2   1.00
      7.8295611             -0.0776669
      0.6877351              0.5654598
S   1   1.00
      0.2040388              1.0000000
P   4   1.00
     26.8098410              0.0154663
      6.0681540              0.0964397
      1.7676256              0.3083610
      0.5466727              0.4911597
P   1   1.00
      0.1587289              1.0000000
D   1   1.00
      0.7000000              1.0000000
****
O     0
S   6   1.00
   5222.9022000             -0.0019364
    782.5399400             -0.0148507
    177.2674300             -0.0733187
     49.5166880             -0.2451162
     15.6664400             -0.4802847
      5.1793599             -0.3359427
S   2   1.00
     10.6014410              0.0788058
      0.9423170             -0.5676952
S   1   1.00
      0.2774746              1.0000000
P   4   1.00
     33.4241260              0.0175603
      7.6221714              0.1076300
      2.2382093              0.3235256
      0.6867300              0.4832229
P   1   1.00
      0.1938135              1.0000000
D   1   1.00
      0.8000000              1.0000000
****

