%chk=freq.chk
%NProcShared=4
# pbepbe/6-31G** opt(maxcycles=500) Freq=(savenormalmodes,raman)

 Title

0 1
    8     5.309770    0.623223    0.000129
   16    -4.208438    0.292011   -0.000214
    8    -2.860075   -2.049059   -0.000465
    6     1.164355   -0.436412   -0.000059
    6     1.538879    0.942027   -0.000801
    6     2.195922   -1.430772    0.000683
    6     2.893317    1.311713   -0.000760
    6     3.547987   -1.057513    0.000726
    6     3.927093    0.321938    0.000019
    6    -0.244499   -0.899413   -0.000009
    6    -1.359311   -0.107200   -0.000331
    6    -2.719766   -0.785054   -0.000321
    1     0.764329    1.730256   -0.001423
    1     1.919279   -2.501747    0.001234
    1     3.173657    2.381354   -0.001339
    1     4.342718   -1.824052    0.001307
    1    -0.409954   -1.997213    0.000335
    1    -1.285483    0.991591   -0.000705
    1     5.307526    1.659491   -0.000443
    6    -3.562996    2.000625    0.001249
    1    -4.440408    2.675723    0.002128
    1    -2.960281    2.230618   -0.899144
    1    -2.959827    2.228866    0.901775

