%chk=freq.chk
%NProcShared=4
# pbepbe/sto-3g opt(maxcycles=500) 

 Title

0 1
O          1.64779        3.87067       -0.21332
S         -1.18925       -4.82800        0.84195
O         -2.68489       -3.20910       -0.38166
C         -0.32787        0.24267       -0.22860
C          1.07420        0.26076       -0.25213
C         -1.03950        1.44139       -0.23327
C          1.75793        1.47235       -0.24090
C         -0.35669        2.64932       -0.22877
C          1.03189        2.65692       -0.22657
C         -1.10005       -0.98780       -0.24348
C         -0.68106       -2.11819        0.32606
C         -1.60165       -3.28308        0.19587
H          1.65081       -0.66014       -0.28683
H         -2.12697        1.44177       -0.23073
H          2.84194        1.46450       -0.24823
H         -0.91125        3.58045       -0.22514
H         -2.07596       -0.96434       -0.71604
H          0.27814       -2.11212        0.83448
H          2.60808        3.73277       -0.21391
C          0.38419       -4.40088        1.49321
H          0.68088       -5.34951        1.90643
H          0.21415       -3.62007        2.24633
H          1.00209       -4.06799        0.64815

