%chk=td2-opt.chk
%NProcShared=4
# cam-b3lyp/aug-cc-pvtz  opt nosymm td(root=2,nstates=20)

 Title

0 1
 6       -0.105010    0.361447    0.002184
 7        1.067229   -0.175797   -0.002249
 8       -1.236598   -0.185755    0.001124
 1        1.205313   -1.183720   -0.006591
 1        1.900195    0.453509   -0.001159
 1       -0.173407    1.462364    0.007009

