%chk=td8-opt.chk
%NProcShared=4
# cam-b3lyp/aug-cc-pvtz  opt nosymm td(root=8,nstates=20) int(grid=ultrafine)

 Title

0 1
 6       -0.151143    0.444037    0.000037
 7        1.082419   -0.131671    0.000175
 8       -1.116290   -0.324557   -0.000091
 1        1.081522   -1.157049    0.000080
 1        1.983977    0.368516    0.000116
 1       -0.222763    1.532772   -0.000001

