%NProcShared=4
#n B3LYP/STO-3G Opt SCRF=PCM 

 Title

0 1
  6  -1.847061   -0.043729   -0.000144
  7  -1.078533   -1.170809    0.002664
  8  -1.395583    1.178675   -0.001914
  1   0.108489   -1.178378   -0.000410
  1  -1.624575   -2.061922    0.004251
  1  -2.955478   -0.201039   -0.001411
  6   1.846060    0.043881    0.000357
  7   1.079602    1.171640    0.000999
  8   1.394023   -1.179105   -0.002908
  1  -0.097455    1.174985   -0.000386
  1   2.954795    0.199514    0.003894
  1   1.625224    2.063546    0.005717

