%chk=td4.chk
%NProcShared=4
# pbepbe/6-31G**  force nosymm td(root=4,nstates=10) SCRF=PCM

 Title

0 1
   6     -2.025022   -0.106380   -0.000118
   7     -1.430390    1.098523   -0.000097
   8     -1.435793   -1.207854   -0.000074
   1     -0.392539    1.181354   -0.000040
   1     -2.002209    1.938928   -0.000117
   1     -3.136712   -0.056939   -0.000158
   6      2.025023    0.106375    0.000125
   7      1.430377   -1.098520    0.000122
   8      1.435807    1.207856    0.000035
   1      0.392524   -1.181342    0.000061
   1      3.136714    0.056921    0.000169
   1      2.002188   -1.938932    0.000174

