%chk=freq.chk
%NProcShared=4
# b3lyp/6-31G(d) opt freq=(raman,savenormalmodes) nosymm

 Title

0 1
 6        3.660546   -0.713278    0.000000
 6        3.660546    0.713278    0.000000
 6        2.479518    1.407225    0.000000
 6        1.223854    0.722557    0.000000
 6        2.479518   -1.407225    0.000000
 6        1.223854   -0.722557    0.000000
 6        0.000000    1.403592    0.000000
 6       -1.223855    0.722556    0.000000
 6        0.000000   -1.403592    0.000000
 6       -1.223855   -0.722556    0.000000
 6       -2.479517    1.407225    0.000000
 6       -3.660546    0.713277    0.000000
 6       -3.660546   -0.713277    0.000000
 6       -2.479517   -1.407225    0.000000
 1        4.607435   -1.246428    0.000000
 1        4.607435    1.246428    0.000000
 1        2.476408    2.494786    0.000000
 1        2.476408   -2.494786    0.000000
 1        0.000000    2.491957    0.000000
 1        0.000000   -2.491957    0.000000
 1       -2.476408    2.494785    0.000000
 1       -4.607435    1.246428    0.000000
 1       -4.607435   -1.246428    0.000000
 1       -2.476408   -2.494785    0.000000

