%chk=td3-opt.chk
%NProcShared=4
# cam-b3lyp/aug-cc-pvtz  opt(maxcycles=100) nosymm td(root=3,nstates=20) int(grid=ultrafine) 

 Title

0 1
 6       -0.104871    0.360776   -0.004334
 7        1.066391   -0.168693    0.017862
 8       -1.231410   -0.188554   -0.005639
 1        1.197418   -1.175990    0.003728
 1        1.905942    0.447492   -0.003193
 1       -0.175749    1.457016   -0.008108

