%chk=td3-opt.chk
%NProcShared=4
# cam-b3lyp/aug-cc-pvtz  opt nosymm td(root=3,nstates=20) int(grid=ultrafine)

 Title

0 1
 6       -0.105033    0.361581    0.000044
 7        1.067158   -0.175481    0.000114
 8       -1.236620   -0.186637   -0.000073
 1        1.205920   -1.183412    0.000097
 1        1.900406    0.453526    0.000145
 1       -0.174109    1.462471   -0.000010

