%chk=td5-opt.chk
%NProcShared=4
# cam-b3lyp/aug-cc-pvtz  opt nosymm td(root=5,nstates=20) int(grid=ultrafine)

 Title

0 1
 6       -0.149201    0.425848    0.000172
 7        1.050702   -0.168824   -0.000369
 8       -1.157809   -0.286931   -0.000098
 1        1.184652   -1.225336    0.000299
 1        1.886185    0.431030    0.000299
 1       -0.156807    1.556262    0.000014

