%chk=td6-opt.chk
%NProcShared=4
# cam-b3lyp/aug-cc-pvtz  opt nosymm td(root=6,nstates=20) int(grid=ultrafine)

 Title

0 1
 6       -0.086600    0.391851   -0.000173
 7        1.068757   -0.175937    0.000095
 8       -1.185396   -0.201144   -0.000054
 1        1.211884   -1.219767    0.000282
 1        1.893701    0.408332    0.000269
 1       -0.244625    1.528714   -0.000101

