%chk=td6.chk
%NProcShared=4
# cam-b3lyp/aug-cc-pvtz  force nosymm td(root=6,nstates=20)

 Title

0 1
 6       -0.160857    0.386261   -0.000004
 7        1.077168   -0.157071   -0.000017
 8       -1.188063   -0.245846   -0.000027
 1        1.174650   -1.157961    0.000127
 1        1.898249    0.418362    0.000231
 1       -0.143425    1.488304    0.000008

