%chk=td7-opt.chk
%NProcShared=4
# cam-b3lyp/aug-cc-pvtz  nosymm td(root=7,nstates=20) opt integral=(grid=ultrafine)

 Title

0 1
 6       -0.123558    0.429014   -0.007913
 7        1.061286   -0.148675   -0.012591
 8       -1.150056   -0.311301   -0.047192
 1        1.132474   -1.163868    0.071350
 1        1.908084    0.398700   -0.057049
 1       -0.170508    1.528179    0.053713

