%chk=freq.chk
%NProcShared=4
# pbepbe/sto-3g opt(maxcycles=500) SCRF=PCM

 Title

0 1
   6    -0.997214   -2.297329   -0.178677
   7     1.006514   -0.831065   -0.301303
   6     0.400644   -2.113384   -0.359676
   6     1.427897   -3.121196   -0.590246
   6     2.657704   -2.442772   -0.639732
   6     2.391171   -1.005144   -0.445001
   6     4.003246   -3.089126   -0.962762
   6     1.169950   -4.615737   -0.809701
   6     0.752072   -5.417486    0.480788
   6    -0.797604   -5.608502    0.714292
   8    -1.320907   -6.235876    1.681907
   8    -1.575671   -5.012236   -0.322679
   6     3.241301    0.180689   -0.443513
   7     5.556390   -0.636540    0.223437
   6     4.601569    0.329605   -0.188196
   6     5.327412    1.634278   -0.269297
   6     6.635428    1.445169    0.116853
   6     6.859276   -0.011159    0.502410
   6     4.664805    2.929898   -0.726604
   6     7.759296    2.479208    0.209264
   6     9.095538    1.937264   -0.384564
   8     7.879905   -0.620593    0.951033
   7    -3.945488    3.645596   -0.449994
   6    -4.436244    4.975948   -0.794428
   6    -3.321077    5.976651   -0.294051
   6    -2.148667    5.085279    0.263794
   6    -2.639020    3.619299    0.100155
   6    -2.887188    6.929723   -1.447032
   6    -1.784016    5.417772    1.751778
   6    -1.159638    6.832122    1.911187
   8    -5.533579    5.211318   -1.367190
   6    -1.873514    2.517690    0.406925
   7    -1.195801    0.159495    0.079882
   6    -2.209629    1.088906    0.319232
   6    -3.472244    0.360611    0.511590
   6    -3.206553   -1.012076    0.360554
   6    -1.785104   -1.140494    0.072217
   6    -4.810585    0.956828    0.945836
   6    -4.159732   -2.187753    0.581598
   6    -4.444558   -3.003420   -0.735033
   6    -5.000859   -4.424281   -0.423672
   8    -6.092048   -4.966829   -0.730643
   8    -4.022178   -5.154659    0.395979
   1    -1.383098   -3.359771   -0.235156
   1     4.669329   -2.388563   -1.501978
   1     4.532466   -3.435914   -0.048761
   1     3.856124   -3.980230   -1.603446
   1     0.366638   -4.745159   -1.567647
   1     2.089947   -5.079663   -1.221758
   1     1.192736   -6.437954    0.431073
   1     1.175802   -4.940478    1.391493
   1    -2.589407   -5.157743   -0.000482
   1     2.696303    1.125053   -0.618798
   1     5.289008   -1.596899    0.549880
   1     5.407363    3.746833   -0.790173
   1     4.195224    2.804420   -1.723184
   1     3.869797    3.239233   -0.017269
   1     7.458561    3.414840   -0.306985
   1     7.927300    2.736852    1.279948
   1     9.913013    2.665866   -0.224257
   1     9.355694    0.982861    0.113281
   1     8.996397    1.752896   -1.470591
   1    -4.436589    2.767653   -0.753942
   1    -3.761236    6.587048    0.527583
   1    -1.236573    5.227982   -0.360381
   1    -2.171923    7.686979   -1.073116
   1    -2.402091    6.362748   -2.263739
   1    -3.771209    7.452966   -1.860586
   1    -2.696921    5.336647    2.377816
   1    -1.064796    4.655797    2.119415
   1    -0.881763    7.010537    2.967492
   1    -0.248088    6.928160    1.291471
   1    -1.872505    7.620733    1.605200
   1    -0.828457    2.728671    0.693901
   1     0.056987   -0.002087   -0.105429
   1    -5.492984    1.137969    0.087275
   1    -5.337048    0.264327    1.631239
   1    -4.667343    1.916678    1.478002
   1    -3.709310   -2.885619    1.322279
   1    -5.122678   -1.832607    1.003275
   1    -5.182239   -2.478580   -1.374793
   1    -3.502481   -3.115341   -1.314321
   1    -4.448608   -6.091007    0.497021

