%chk=freq.chk
%NProcShared=4
# pbepbe/sto-3g opt(maxcycles=500) Freq=(savenormalmodes,raman)

 Title

0 1
C   	     16.072    -11.574    -17.298 
N   	     14.262    -13.278    -17.145 
C   	     14.747    -11.984    -17.112 
C   	     13.728    -11.126    -16.625 
C   	     12.553    -11.911    -16.509 
C   	     12.899    -13.242    -16.846 
C   	     11.203    -11.379    -16.135 
C   	     13.886     -9.738    -16.100 
C   	     14.280     -9.828    -14.581 
C   	     15.763     -9.548    -14.423 
O   	     16.410    -10.079    -13.469 
O   	     16.282     -8.743    -15.262 
C   	     12.006    -14.365    -16.911 
N   	     10.914    -14.235    -14.608 
C   	     11.114    -14.835    -15.895 
C   	     10.295    -16.021    -15.972 
C   	      9.520    -16.056    -14.783 
C   	      9.952    -14.886    -13.935 
C   	     10.208    -17.019    -17.077 
C   	      8.480    -17.082    -14.505 
C   	      7.111    -16.406    -14.410 
O   	      9.560    -14.550    -12.786 
N   	     20.847    -14.689    -20.726 
C   	     21.538    -15.374    -21.636 
C   	     21.141    -16.843    -21.715 
C   	     20.014    -16.879    -20.661 
C   	     19.877    -15.510    -20.085 
C   	     20.636    -17.098    -23.144 
C   	     20.179    -18.039    -19.615 
C   	     20.016    -19.399    -20.329 
O   	     22.420    -14.918    -22.359 
C   	     18.816    -15.053    -19.282 
N   	     17.212    -13.553    -18.257 
C   	     18.494    -13.816    -18.691 
C   	     19.326    -12.648    -18.415 
C   	     18.480    -11.682    -17.886 
C   	     17.178    -12.262    -17.796 
C   	     20.780    -12.407    -18.647 
C   	     18.918    -10.360    -17.354 
C   	     19.071     -9.232    -18.399 
C   	     19.672     -7.982    -17.708 
O   	     20.012     -7.018    -18.466 
O   	     19.829     -7.970    -16.431 
H   	     16.272    -10.553    -17.007 
H   	     10.475    -12.203    -16.120 
H   	     11.254    -10.917    -15.138 
H   	     10.889    -10.626    -16.872 
H   	     14.677     -9.216    -16.659 
H   	     12.938     -9.190    -16.207 
H   	     13.704     -9.086    -14.009 
H   	     14.056    -10.837    -14.204 
H   	     17.200     -8.617    -15.054 
H   	     12.008    -14.921    -17.837 
H   	     11.419    -13.445    -14.261 
H   	      9.483    -17.802    -16.809 
H   	      9.881    -16.517    -17.999 
H   	     11.196    -17.475    -17.238 
H   	      8.468    -17.822    -15.319 
H   	      8.707    -17.586    -13.554 
H   	      6.341    -17.164    -14.204 
H   	      7.123    -15.666    -13.596 
H   	      6.884    -15.902    -15.361 
H   	     20.991    -13.721    -20.520 
H   	     21.972    -17.512    -21.448 
H   	     19.084    -17.092    -21.208 
H   	     20.337    -18.152    -23.245 
H   	     19.770    -16.451    -23.348 
H   	     21.439    -16.874    -23.862 
H   	     21.178    -17.982    -19.158 
H   	     19.412    -17.940    -18.833 
H   	     20.131    -20.213    -19.599 
H   	     19.017    -19.455    -20.786 
H   	     20.783    -19.497    -21.111 
H   	     18.087    -15.821    -19.072 
H   	     16.442    -14.191    -18.275 
H   	     20.927    -11.993    -19.655 
H   	     21.157    -11.694    -17.899 
H   	     21.328    -13.357    -18.557 
H   	     18.176    -10.033    -16.610 
H   	     19.892    -10.500    -16.863 
H   	     19.740     -9.565    -19.206 
H   	     18.086     -8.983    -18.820 
H   	     20.227     -7.148    -16.168 
    	                                  

