%chk=td3-opt.chk
%NProcShared=4
# cam-b3lyp/aug-cc-pvdz  opt(maxcycles=100) nosymm td(root=1,nstates=20) SCRF=PCM int(grid=ultrafine)

 Title

0 1
 6       -0.275643    0.286710    0.134280
 7        1.053383   -0.231538   -0.044738
 8       -1.219290    0.006449   -0.639398
 1        1.444625   -0.850828    0.665783
 1        1.778966    0.193157   -0.637142
 1       -0.102271    1.325135    0.521432

