%chk=freq.chk
%nProcShared=4
# B3LYP/TZVP Freq=savenormalmodes opt

 Title

0 1
   6        3.076112   -0.167551    0.000027
   6        1.868124    0.419457   -0.000005
   6        0.607363   -0.296955   -0.000028
   6       -0.607363    0.296956   -0.000028
   6       -1.868124   -0.419457   -0.000005
   6       -3.076112    0.167551    0.000027
   1        0.663363   -1.386571   -0.000036
   1       -0.663363    1.386571   -0.000036
   1       -1.805510   -1.508224   -0.000010
   1       -3.182321    1.250111    0.000025
   1       -3.993633   -0.412645    0.000053
   1        3.993633    0.412644    0.000053
   1        3.182320   -1.250111    0.000025
   1        1.805511    1.508224   -0.000010


