%chk=td-opt.chk
%nProcShared=4
# B3LYP/TZVP TD(root=1) opt

 Title

0 1
 6        3.066705   -0.167255    0.000005
 6        1.863121    0.417180   -0.000002
 6        0.604749   -0.296384   -0.000004
 6       -0.604749    0.296384   -0.000004
 6       -1.863121   -0.417180   -0.000002
 6       -3.066705    0.167255    0.000005
 1        0.658658   -1.382843   -0.000004
 1       -0.658658    1.382843   -0.000004
 1       -1.802697   -1.502723   -0.000007
 1       -3.172830    1.246432    0.000009
 1       -3.979654   -0.413604    0.000006
 1        3.979654    0.413604    0.000006
 1        3.172830   -1.246432    0.000009
 1        1.802697    1.502723   -0.000007

