%chk=td4.chk
%NProcShared=4
# pbepbe/6-31G**  force nosymm td(root=4,nstates=10) SCRF=PCM

 Title

0 1
 6       -0.151653    0.389263    0.000002
 7        1.087441   -0.162459   -0.000014
 8       -1.213471   -0.243059   -0.000035
 1        1.193578   -1.174635    0.000133
 1        1.922634    0.415969    0.000226
 1       -0.110613    1.504779    0.000010

