%chk=td-opt.chk
%nProcShared=4
# bp86/TZVP TD(root=1) opt nosymm

 Title

0 1
 6       -3.083331    0.166837    0.000001
 6       -1.867408   -0.418746   -0.000001
 6       -0.611494    0.297504    0.000000
 6        0.611494   -0.297504    0.000000
 6        1.867408    0.418746   -0.000001
 6        3.083331   -0.166837    0.000001
 1       -0.665669    1.393498    0.000000
 1        0.665669   -1.393498    0.000000
 1        1.804486    1.513646   -0.000001
 1        3.191699   -1.254773    0.000002
 1        4.001817    0.421633    0.000001
 1       -4.001818   -0.421634    0.000001
 1       -3.191699    1.254773    0.000002
 1       -1.804486   -1.513646   -0.000001

